Circuit: * C:\Users\João Pedro\Dropbox\Confiabilidade de sistemas\Trabalho\walter\ltSpice\amp_90W_25volts.asc

Direct Newton iteration for .op point succeeded.

Date: Mon Oct 24 13:25:00 2016
Total elapsed time: 12.534 seconds.

tnom = 27
temp = 27
method = modified trap
totiter = 480030
traniter = 480022
tranpoints = 240012
accept = 144016
rejected = 95996
matrix size = 38
fillins = 38
solver = Normal
Matrix Compiler1: 4.95 KB object code size  3.8/3.7/[2.1]
Matrix Compiler2: 3.98 KB object code size  2.4/2.9/[2.2]


