Circuit: * C:\Users\João Pedro\Dropbox\Confiabilidade de sistemas\Trabalho\walter\ltSpice\amp_basico.asc

Direct Newton iteration for .op point succeeded.

Date: Tue Oct 25 12:19:26 2016
Total elapsed time: 22.857 seconds.

tnom = 27
temp = 27
method = modified trap
totiter = 1012146
traniter = 1012134
tranpoints = 367261
accept = 249825
rejected = 117436
matrix size = 29
fillins = 26
solver = Normal
Matrix Compiler1: 3.46 KB object code size  3.1/2.9/[1.9]
Matrix Compiler2: off  [2.0]/2.3/2.2


