Circuit: * C:\Users\João Pedro\Dropbox\Confiabilidade de sistemas\Trabalho\walter\ltSpice\amp_20W.asc

Direct Newton iteration for .op point succeeded.

Date: Mon Oct 24 13:24:10 2016
Total elapsed time: 9.872 seconds.

tnom = 27
temp = 27
method = modified trap
totiter = 677488
traniter = 677461
tranpoints = 165551
accept = 112258
rejected = 53293
matrix size = 15
fillins = 6
solver = Normal
Matrix Compiler1: 1.16 KB object code size  2.1/2.0/[1.6]
Matrix Compiler2: off  [1.7]/1.9/1.9


