Circuit: * C:\Users\João Pedro\Dropbox\Confiabilidade de sistemas\Trabalho\walter\ltSpice\amp_7_a_35W\amp_35W_final.asc

Direct Newton iteration failed to find .op point.  (Use ".option noopiter" to skip.)
Starting Gmin stepping
Gmin = 10
Gmin = 1.07374
Gmin = 0.115292
Gmin = 0.0123794
Gmin = 0.00132923
Gmin = 0.000142725
Gmin = 1.5325e-005
Gmin = 1.6455e-006
Gmin = 1.76685e-007
Gmin = 1.89714e-008
Gmin = 2.03704e-009
Gmin = 2.18725e-010
Gmin = 2.34854e-011
Gmin = 2.52173e-012
Gmin = 2.70769e-013
Gmin = 0
Gmin stepping succeeded in finding the operating point.


Date: Wed Oct 26 16:26:30 2016
Total elapsed time: 4.904 seconds.

tnom = 27
temp = 27
method = modified trap
totiter = 145697
traniter = 145210
tranpoints = 53944
accept = 37521
rejected = 16423
matrix size = 40
fillins = 46
solver = Normal
Matrix Compiler1: 4.94 KB object code size  4.1/3.7/[2.1]
Matrix Compiler2: off  [2.5]/3.0/2.9


